Version 4.1
SHEET 1 880 680
WIRE 96 -64 -144 -64
WIRE 272 -64 96 -64
WIRE 272 32 272 -64
WIRE -144 96 -144 -64
WIRE 96 96 96 -64
WIRE -192 160 -240 160
WIRE 48 160 0 160
WIRE -144 208 -144 176
WIRE 96 208 96 176
WIRE 96 208 -144 208
WIRE 176 208 96 208
WIRE 272 208 272 112
WIRE 272 208 176 208
WIRE 176 224 176 208
FLAG 176 224 0
FLAG -240 160 soc2
FLAG 0 160 soc1
SYMBOL current 272 112 R180
WINDOW 123 0 0 Left 0
WINDOW 39 0 0 Left 0
SYMATTR InstName I1
SYMATTR Value 1
SYMBOL Circuitos\ Lineales\\LAB-FINAL-CL\\Li-Ion -272 144 R0
WINDOW 39 191 -3 VCenter 1
SYMATTR SpiceLine Isoc=0.02
SYMATTR InstName X1
SYMBOL Circuitos\ Lineales\\LAB-FINAL-CL\\Li-Ion -32 144 R0
WINDOW 39 191 -3 VCenter 1
SYMATTR SpiceLine Isoc=0.02
SYMATTR InstName X2
TEXT -88 288 Left 2 !.options gmin=1e-12 abstol=1n reltol=0.1
TEXT -88 312 Left 2 !.tran 15k
